Circuit: * C:\Users\matth\Documents\GitHub\elec2134\TLB 4\Task3b.asc

Direct Newton iteration for .op point succeeded.

Date: Wed Nov 09 00:15:11 2022
Total elapsed time: 0.036 seconds.

tnom = 27
temp = 27
method = modified trap
totiter = 2101
traniter = 2098
tranpoints = 1050
accept = 1050
rejected = 0
matrix size = 7
fillins = 0
solver = Normal
Matrix Compiler1: 250 bytes object code size  0.1/0.1/[0.1]
Matrix Compiler2: 467 bytes object code size  0.1/0.1/[0.1]

