Circuit: * C:\Users\matth\Documents\GitHub\elec2134\TLB 4\Task3bb.asc

.OP point found by inspection.

Date: Wed Nov 09 14:42:59 2022
Total elapsed time: 0.022 seconds.

tnom = 27
temp = 27
method = modified trap
totiter = 2138
traniter = 2138
tranpoints = 1070
accept = 1070
rejected = 0
matrix size = 6
fillins = 0
solver = Normal
Matrix Compiler1: 200 bytes object code size  0.1/0.0/[0.0]
Matrix Compiler2: 394 bytes object code size  0.1/0.1/[0.1]

