Circuit: * C:\Users\matth\Documents\GitHub\elec2134\TLB 4\Task3bb.asc

Direct Newton iteration for .op point succeeded.

Date: Wed Nov 09 15:28:22 2022
Total elapsed time: 0.048 seconds.

tnom = 27
temp = 27
method = modified trap
totiter = 2101
traniter = 2098
tranpoints = 1050
accept = 1050
rejected = 0
matrix size = 6
fillins = 0
solver = Normal
Matrix Compiler1: 200 bytes object code size  0.1/0.0/[0.0]
Matrix Compiler2: off  [0.0]/0.1/0.1

