Circuit: * C:\Users\matth\Documents\GitHub\elec2134\TLB 4\Task4.asc


Date: Wed Nov 09 00:27:19 2022
Total elapsed time: 0.026 seconds.

tnom = 27
temp = 27
method = trap
totiter = 0
traniter = 0
tranpoints = 0
accept = 0
rejected = 0
matrix size = 7
fillins = 7
solver = Normal

