Circuit: * C:\Users\matth\Documents\GitHub\elec2134\TLB 4\Task3.asc

.OP point found by inspection.

Date: Wed Nov 09 14:29:33 2022
Total elapsed time: 0.024 seconds.

tnom = 27
temp = 27
method = modified trap
totiter = 2142
traniter = 2142
tranpoints = 1072
accept = 1072
rejected = 0
matrix size = 7
fillins = 0
solver = Normal
Matrix Compiler1:      15 opcodes  0.1/[0.1]/0.1
Matrix Compiler2: off  [0.1]/0.1/0.1

