Circuit: * C:\Users\matth\Documents\GitHub\elec2134\TLB 4\Task1.asc


Date: Tue Nov 08 23:15:44 2022
Total elapsed time: 0.023 seconds.

tnom = 27
temp = 27
method = trap
totiter = 0
traniter = 0
tranpoints = 0
accept = 0
rejected = 0
matrix size = 7
fillins = 8
solver = Normal

