Circuit: * C:\Users\matth\Documents\GitHub\elec2134\TLB 4\Task2.asc


Date: Tue Nov 08 15:32:14 2022
Total elapsed time: 0.020 seconds.

tnom = 27
temp = 27
method = trap
totiter = 0
traniter = 0
tranpoints = 0
accept = 0
rejected = 0
matrix size = 6
fillins = 1
solver = Normal

