Circuit: * C:\users\mattr\Favorites\elec2134\TLB 5\Draft2.asc

Limiting rise time of source i1 to 1e-008
Limiting fall time of source i1 to 1e-008
Limiting rise time of source v1 to 1e-008
Limiting fall time of source v1 to 1e-008
Direct Newton iteration for .op point succeeded.

Date: Sat Nov 12 19:51:05 2022
Total elapsed time: 0.079 seconds.

tnom = 27
temp = 27
method = modified trap
totiter = 2133
traniter = 2130
tranpoints = 1066
accept = 1064
rejected = 2
matrix size = 4
fillins = 0
solver = Normal
Matrix Compiler1: 100 bytes object code size  0.1/0.1/[0.1]
Matrix Compiler2:      21 opcodes  0.1/[0.1]/0.1

