Circuit: * C:\users\mattr\Favorites\elec2134\TLB 5\Task2.asc

Direct Newton iteration for .op point succeeded.

Date: Sat Nov 19 19:36:44 2022
Total elapsed time: 0.110 seconds.

tnom = 27
temp = 27
method = modified trap
totiter = 2165
traniter = 2162
tranpoints = 1082
accept = 1080
rejected = 2
matrix size = 4
fillins = 0
solver = Normal
Matrix Compiler1: 100 bytes object code size  0.1/0.1/[0.1]
Matrix Compiler2:      21 opcodes  0.1/[0.1]/0.2

