Circuit: * C:\users\mattr\Favorites\elec2134\TLB 5\Task1.asc

I1: both pins shorted together -- ignoring.
Direct Newton iteration for .op point succeeded.

Date: Sat Nov 12 18:16:01 2022
Total elapsed time: 0.114 seconds.

tnom = 27
temp = 27
method = modified trap
totiter = 2099
traniter = 2096
tranpoints = 1049
accept = 1049
rejected = 0
matrix size = 2
fillins = 0
solver = Normal
Matrix Compiler1: 54 bytes object code size  0.2/0.2/[0.1]
Matrix Compiler2: 116 bytes object code size  0.2/0.2/[0.2]

