Circuit: * C:\users\mattr\Favorites\elec2134\TLB 3\Draft1.asc


Date: Tue Nov 08 17:48:08 2022
Total elapsed time: 0.074 seconds.

tnom = 27
temp = 27
method = trap
totiter = 0
traniter = 0
tranpoints = 0
accept = 0
rejected = 0
matrix size = 7
fillins = 8
solver = Normal

