Circuit: * C:\Users\matth\Documents\GitHub\elec2134\TLB 1\Draft1.asc

.OP point found by inspection.

Date: Thu Sep 15 01:00:04 2022
Total elapsed time: 0.171 seconds.

tnom = 27
temp = 27
method = modified trap
totiter = 28382
traniter = 28382
tranpoints = 14192
accept = 8783
rejected = 5409
matrix size = 2
fillins = 0
solver = Normal
Matrix Compiler1: off  [0.0]/0.0/0.0
Matrix Compiler2: 116 bytes object code size  0.0/0.0/[0.0]

