Circuit: * Z:\home\mattr\uni\elec2134\TLB 1\Draft3.asc


Date: Wed Sep 21 14:31:36 2022
Total elapsed time: 0.114 seconds.

tnom = 27
temp = 27
method = trap
totiter = 0
traniter = 0
tranpoints = 0
accept = 0
rejected = 0
matrix size = 3
fillins = 1
solver = Normal

