Circuit: * C:\Users\matth\Documents\GitHub\elec2134\TLB 1\Draft2.asc


Date: Thu Sep 22 18:28:31 2022
Total elapsed time: 0.021 seconds.

tnom = 27
temp = 27
method = trap
totiter = 0
traniter = 0
tranpoints = 0
accept = 0
rejected = 0
matrix size = 2
fillins = 0
solver = Normal

