Circuit: * Z:\home\mattr\uni\elec2134\TLB 1\Task2 DC.asc


Date: Wed Sep 14 12:46:30 2022
Total elapsed time: 0.069 seconds.

tnom = 27
temp = 27
method = trap
totiter = 0
traniter = 0
tranpoints = 0
accept = 0
rejected = 0
matrix size = 5
fillins = 0
solver = Normal

