Circuit: * C:\users\mattr\Favorites\uni\elec2134\TLB 1\Task3-thevinin.asc

.OP point found by inspection.

Date: Wed Sep 28 10:42:22 2022
Total elapsed time: 0.056 seconds.

tnom = 27
temp = 27
method = trap
totiter = 0
traniter = 0
tranpoints = 0
accept = 0
rejected = 0
matrix size = 2
fillins = 0
solver = Normal

