Circuit: * C:\Users\matth\Documents\GitHub\elec2134\TLB 1\Task4.asc


Date: Wed Sep 21 22:14:00 2022
Total elapsed time: 0.017 seconds.

tnom = 27
temp = 27
method = trap
totiter = 0
traniter = 0
tranpoints = 0
accept = 0
rejected = 0
matrix size = 4
fillins = 1
solver = Normal

