Circuit: * Z:\home\mattr\uni\elec2134\TLB 1\Task3.asc


Date: Wed Sep 21 16:45:20 2022
Total elapsed time: 0.057 seconds.

tnom = 27
temp = 27
method = trap
totiter = 0
traniter = 0
tranpoints = 0
accept = 0
rejected = 0
matrix size = 2
fillins = 0
solver = Normal

