Circuit: * Z:\home\mattr\uni\elec2134\TLB 1\Task3-thev-eq.asc


Date: Wed Sep 21 17:30:13 2022
Total elapsed time: 0.048 seconds.

tnom = 27
temp = 27
method = trap
totiter = 0
traniter = 0
tranpoints = 0
accept = 0
rejected = 0
matrix size = 3
fillins = 1
solver = Normal

