Circuit: * Z:\home\mattr\uni\elec2134\TLB 1\Task2.asc

Direct Newton iteration for .op point succeeded.

Date: Wed Sep 14 12:32:23 2022
Total elapsed time: 0.088 seconds.

tnom = 27
temp = 27
method = modified trap
totiter = 2091
traniter = 2088
tranpoints = 1045
accept = 1045
rejected = 0
matrix size = 5
fillins = 0
solver = Normal
Matrix Compiler1: 230 bytes object code size  0.2/0.1/[0.1]
Matrix Compiler2: 355 bytes object code size  0.2/0.2/[0.1]

