Circuit: * C:\users\mattr\Favorites\uni\elec2134\TLB 1\Task2.asc


Date: Wed Sep 28 10:35:42 2022
Total elapsed time: 0.060 seconds.

tnom = 27
temp = 27
method = trap
totiter = 0
traniter = 0
tranpoints = 0
accept = 0
rejected = 0
matrix size = 5
fillins = 0
solver = Normal

