Circuit: * C:\Users\matth\Documents\GitHub\elec2134\TLB 1\Task4-vs2.asc


Date: Wed Sep 21 22:22:37 2022
Total elapsed time: 0.016 seconds.

tnom = 27
temp = 27
method = trap
totiter = 0
traniter = 0
tranpoints = 0
accept = 0
rejected = 0
matrix size = 4
fillins = 0
solver = Normal

