Circuit: * C:\users\mattr\Favorites\uni\elec2134\TLB 1\Task4-vs1.asc


Date: Wed Sep 28 10:45:31 2022
Total elapsed time: 0.045 seconds.

tnom = 27
temp = 27
method = trap
totiter = 0
traniter = 0
tranpoints = 0
accept = 0
rejected = 0
matrix size = 4
fillins = 1
solver = Normal

