Circuit: * Z:\home\mattr\uni\elec2134\TLB 1\Task3.asc

.OP point found by inspection.

Date: Tue Sep 20 15:40:15 2022
Total elapsed time: 0.493 seconds.

tnom = 27
temp = 27
method = modified trap
totiter = 21750
traniter = 21750
tranpoints = 10876
accept = 7673
rejected = 3203
matrix size = 2
fillins = 0
solver = Normal
Matrix Compiler1: 54 bytes object code size  0.3/0.3/[0.3]
Matrix Compiler2: 116 bytes object code size  0.3/1.6/[0.3]

