Circuit: * C:\users\mattr\Favorites\uni\elec2134\TLB 1\Task4-vs2.asc


Date: Wed Sep 28 10:51:47 2022
Total elapsed time: 0.051 seconds.

tnom = 27
temp = 27
method = trap
totiter = 0
traniter = 0
tranpoints = 0
accept = 0
rejected = 0
matrix size = 4
fillins = 0
solver = Normal

