Circuit: * C:\users\mattr\Favorites\elec2134\TLB 2\Draft1.asc

Per .tran options, skipping operating point for transient analysis.

Date: Mon Oct 24 18:38:37 2022
Total elapsed time: 0.064 seconds.

tnom = 27
temp = 27
method = modified trap
totiter = 2094
traniter = 2094
tranpoints = 1048
accept = 1048
rejected = 0
matrix size = 3
fillins = 0
solver = Normal
Matrix Compiler1: 68 bytes object code size  0.1/0.1/[0.1]
Matrix Compiler2: 169 bytes object code size  0.1/0.1/[0.1]

