Circuit: * C:\Users\matth\Documents\GitHub\elec2134\TLB 2\Draft3.asc

.OP point found by inspection.

Date: Mon Nov 07 13:04:58 2022
Total elapsed time: 0.018 seconds.

tnom = 27
temp = 27
method = modified trap
totiter = 2142
traniter = 2142
tranpoints = 1072
accept = 1071
rejected = 1
matrix size = 7
fillins = 0
solver = Normal
Matrix Compiler1:      15 opcodes  0.1/[0.0]/0.1
Matrix Compiler2: off  [0.1]/0.1/0.1

