Circuit: * C:\Users\matth\Documents\GitHub\elec2134\TLB 2\Draft4.asc


Date: Mon Nov 07 13:14:36 2022
Total elapsed time: 0.022 seconds.

tnom = 27
temp = 27
method = trap
totiter = 0
traniter = 0
tranpoints = 0
accept = 0
rejected = 0
matrix size = 7
fillins = 7
solver = Normal

