Circuit: * C:\Users\matth\Documents\GitHub\elec2134\TLB 2\Task1-3.asc

WARNING: Node N004 is floating.

.OP point found by inspection.

Date: Sat Oct 01 23:14:47 2022
Total elapsed time: 0.027 seconds.

tnom = 27
temp = 27
method = modified trap
totiter = 2152
traniter = 2152
tranpoints = 1077
accept = 1075
rejected = 2
matrix size = 6
fillins = 0
solver = Normal
Matrix Compiler1: 200 bytes object code size  0.1/0.1/[0.1]
Matrix Compiler2: off  [0.1]/0.1/0.1

