Circuit: * C:\users\mattr\Favorites\elec2134\TLB 2\Task1-3.asc

WARNING: Node N004 is floating.

.OP point found by inspection.

Date: Sat Oct 01 17:33:38 2022
Total elapsed time: 0.063 seconds.

tnom = 27
temp = 27
method = modified trap
totiter = 2166
traniter = 2166
tranpoints = 1084
accept = 1082
rejected = 2
matrix size = 6
fillins = 0
solver = Normal
Matrix Compiler1: 280 bytes object code size  0.1/0.1/[0.1]
Matrix Compiler2: 428 bytes object code size  0.1/0.1/[0.1]

