Circuit: * C:\Users\matth\Documents\GitHub\elec2134\TLB 2\Task3aii.asc


Date: Mon Oct 10 01:38:44 2022
Total elapsed time: 0.025 seconds.

tnom = 27
temp = 27
method = trap
totiter = 0
traniter = 0
tranpoints = 0
accept = 0
rejected = 0
matrix size = 3
fillins = 1
solver = Normal

