Circuit: * C:\users\mattr\Favorites\elec2134\TLB 2\Task1-5.asc


Date: Wed Oct 12 11:49:34 2022
Total elapsed time: 0.045 seconds.

tnom = 27
temp = 27
method = trap
totiter = 0
traniter = 0
tranpoints = 0
accept = 0
rejected = 0
matrix size = 6
fillins = 1
solver = Normal

