Circuit: * C:\Users\matth\Documents\GitHub\elec2134\TLB 2\Task1-2.asc

.OP point found by inspection.

Date: Sat Oct 01 23:06:01 2022
Total elapsed time: 0.019 seconds.

tnom = 27
temp = 27
method = modified trap
totiter = 2150
traniter = 2150
tranpoints = 1076
accept = 1074
rejected = 2
matrix size = 6
fillins = 0
solver = Normal
Matrix Compiler1:      12 opcodes  0.1/[0.1]/0.1
Matrix Compiler2: off  [0.0]/0.1/0.1

