Circuit: * C:\users\mattr\Favorites\elec2134\TLB 2\Task3aiii.asc


Date: Wed Oct 12 12:01:59 2022
Total elapsed time: 0.062 seconds.

tnom = 27
temp = 27
method = trap
totiter = 0
traniter = 0
tranpoints = 0
accept = 0
rejected = 0
matrix size = 4
fillins = 0
solver = Normal

