Circuit: * C:\Users\matth\Documents\GitHub\elec2134\TLB 2\Task2.asc

Direct Newton iteration for .op point succeeded.

Date: Mon Oct 03 16:43:29 2022
Total elapsed time: 0.025 seconds.

tnom = 27
temp = 27
method = modified trap
totiter = 7257
traniter = 7254
tranpoints = 3628
accept = 3328
rejected = 300
matrix size = 3
fillins = 0
solver = Normal
Matrix Compiler1: 50 bytes object code size  0.0/0.0/[0.0]
Matrix Compiler2: 175 bytes object code size  0.0/0.0/[0.0]

