Circuit: * C:\users\mattr\Favorites\elec2134\TLB 2\Task2.asc

Direct Newton iteration for .op point succeeded.

Date: Wed Oct 12 11:58:22 2022
Total elapsed time: 0.108 seconds.

tnom = 27
temp = 27
method = modified trap
totiter = 7257
traniter = 7254
tranpoints = 3628
accept = 3328
rejected = 300
matrix size = 3
fillins = 0
solver = Normal
Matrix Compiler1: 50 bytes object code size  0.1/0.1/[0.1]
Matrix Compiler2:      15 opcodes  0.1/[0.1]/0.1

