Circuit: * C:\users\mattr\Favorites\elec2134\TLB 2\Task1-1.asc

.OP point found by inspection.

Date: Sat Oct 01 16:30:56 2022
Total elapsed time: 0.050 seconds.

tnom = 27
temp = 27
method = modified trap
totiter = 2152
traniter = 2152
tranpoints = 1077
accept = 1075
rejected = 2
matrix size = 5
fillins = 0
solver = Normal
Matrix Compiler1: 150 bytes object code size  0.1/0.1/[0.1]
Matrix Compiler2: 321 bytes object code size  0.1/0.1/[0.1]

