Circuit: * C:\Users\matth\Documents\GitHub\elec2134\TLB 2\Task3ai.asc


Date: Mon Oct 03 20:57:06 2022
Total elapsed time: 0.014 seconds.

tnom = 27
temp = 27
method = trap
totiter = 0
traniter = 0
tranpoints = 0
accept = 0
rejected = 0
matrix size = 4
fillins = 0
solver = Normal

