Circuit: * C:\users\mattr\Favorites\elec2134\TLB 2\Task4.asc


Date: Wed Oct 12 12:34:04 2022
Total elapsed time: 0.055 seconds.

tnom = 27
temp = 27
method = trap
totiter = 0
traniter = 0
tranpoints = 0
accept = 0
rejected = 0
matrix size = 3
fillins = 1
solver = Normal

